# Packages
 &PACKAGES
 useDiagnostics=.TRUE.,
 useMNC=.FALSE.,
 useSHELFICE=.TRUE.,
 &
  
